@<TRIPOS>MOLECULE
HEM
   72    76     1     0     0
SMALL
bcc


@<TRIPOS>ATOM
      1 CHA         54.2580    65.7060    43.5270 ce       999 HEM       0.131400
      2 CHB         49.4370    65.6720    44.0150 ce       999 HEM      -0.106600
      3 CHC         49.6800    69.5180    46.9430 ce       999 HEM      -0.088600
      4 CHD         54.4590    69.8150    46.1120 ce       999 HEM      -0.045600
      5 NA          51.8860    66.0040    44.1150 nd       999 HEM      -0.299300
      6 C1A         52.9320    65.2650    43.5820 cc       999 HEM       0.322900
      7 C2A         52.4370    64.0880    42.8880 cc       999 HEM      -0.301800
      8 C3A         51.0900    64.1240    42.9780 cd       999 HEM       0.107800
      9 C4A         50.7610    65.2830    43.7680 cd       999 HEM       0.023600
     10 CMA         50.0430    63.2730    42.2590 c3       999 HEM      -0.096900
     11 CAA         53.3130    63.1600    42.0500 c3       999 HEM      -0.015200
     12 CBA         53.5620    63.5510    40.6120 c3       999 HEM      -0.092400
     13 CGA         54.2540    62.5300    39.7170 c        999 HEM       1.056600
     14 O1A         54.3510    61.3400    40.1040 o        999 HEM      -0.513800
     15 O2A         54.6780    62.9300    38.6140 o        999 HEM      -0.513800
     16 NB          49.9970    67.7000    45.2990 nd       999 HEM      -0.474300
     17 C1B         49.1060    66.7170    44.8610 cc       999 HEM       0.419900
     18 C2B         47.7460    67.0450    45.2150 cc       999 HEM      -0.171800
     19 C3B         47.8150    68.1340    46.0090 cd       999 HEM      -0.092000
     20 C4B         49.2190    68.4820    46.1350 cd       999 HEM       0.139600
     21 CMB         46.5520    66.1470    44.8760 c3       999 HEM      -0.047900
     22 CAB         46.8240    68.8090    46.7460 cf       999 HEM      -0.114000
     23 CBB         45.6730    68.3230    47.3030 c2       999 HEM      -0.196000
     24 NC          52.0380    69.3210    46.2810 nd       999 HEM      -0.455300
     25 C1C         51.0300    69.9030    47.0270 cc       999 HEM       0.407900
     26 C2C         51.5150    71.0670    47.7390 cc       999 HEM      -0.165800
     27 C3C         52.8440    71.1320    47.5070 cd       999 HEM      -0.095000
     28 C4C         53.1790    70.0270    46.6450 cd       999 HEM       0.114600
     29 CMC         50.6550    71.9220    48.6660 c3       999 HEM      -0.048900
     30 CAC         53.7840    72.0460    47.9860 cf       999 HEM      -0.116000
     31 CBC         53.7330    73.0850    48.8720 c2       999 HEM      -0.197000
     32 ND          53.9230    67.7040    44.9530 nd       999 HEM      -0.411300
     33 C1D         54.8080    68.6890    45.3610 cc       999 HEM       0.385900
     34 C2D         56.1680    68.3330    45.0070 cc       999 HEM      -0.201800
     35 C3D         56.1080    67.1700    44.3290 cd       999 HEM      -0.069200
     36 C4D         54.7190    66.7890    44.2650 cd       999 HEM       0.050600
     37 CMD         57.3850    69.1580    45.4110 c3       999 HEM      -0.041900
     38 CAD         57.2730    66.2640    43.9010 c3       999 HEM      -0.034200
     39 CBD         57.7850    65.2960    44.9710 c3       999 HEM      -0.179400
     40 CGD         59.0740    64.6150    44.4880 c        999 HEM       0.898600
     41 O1D         60.0800    64.7410    45.2050 o        999 HEM      -0.859300
     42 O2D         59.0950    63.9710    43.4380 o        999 HEM      -0.859300
     43 HMA1        50.4340    62.8840    41.4610 hc       999 HEM       0.083033
     44 HMA2        49.2880    63.8300    42.0110 hc       999 HEM       0.083033
     45 HMA3        49.7410    62.5640    42.8490 hc       999 HEM       0.083033
     46 HMB1        46.7370    65.6570    44.0590 hc       999 HEM       0.052367
     47 HMB2        45.7600    66.6940    44.7520 hc       999 HEM       0.052367
     48 HMB3        46.4020    65.5210    45.6010 hc       999 HEM       0.052367
     49 HMC1        49.7330    71.9000    48.3640 hc       999 HEM       0.053033
     50 HMC2        50.9770    72.8370    48.6540 hc       999 HEM       0.053033
     51 HMC3        50.7070    71.5730    49.5700 hc       999 HEM       0.053033
     52 HMD1        58.1530    68.5740    45.5120 hc       999 HEM       0.051033
     53 HMD2        57.2070    69.6060    46.2530 hc       999 HEM       0.051033
     54 HMD3        57.5700    69.8190    44.7260 hc       999 HEM       0.051033
     55 HBB1        45.0800    68.9180    47.7890 ha       999 HEM       0.118500
     56 HBB2        45.4490    67.3830    47.2120 ha       999 HEM       0.118500
     57 HBC1        54.5320    73.6010    49.0610 ha       999 HEM       0.118000
     58 HBC2        52.8980    73.3060    49.3120 ha       999 HEM       0.118000
     59 HBA1        54.0950    64.3610    40.6100 hc       999 HEM       0.092700
     60 HBA2        52.7080    63.7720    40.2090 hc       999 HEM       0.092700
     61 HAA1        52.9070    62.2790    42.0550 hc       999 HEM       0.148200
     62 HAA2        54.1730    63.0790    42.4920 hc       999 HEM       0.148200
     63 HBD1        57.1090    64.6270    45.1630 hc       999 HEM       0.057700
     64 HBD2        57.9530    65.7750    45.7980 hc       999 HEM       0.057700
     65 HAD1        58.0110    66.8260    43.6160 hc       999 HEM       0.063200
     66 HAD2        56.9940    65.7490    43.1280 hc       999 HEM       0.063200
     67 HHA         54.8550    65.2560    42.9740 ha       999 HEM       0.245000
     68 HHB         48.7510    65.2080    43.5920 ha       999 HEM       0.141000
     69 HHC         49.0590    69.9820    47.4570 ha       999 HEM       0.145000
     70 HHD         55.1120    70.4590    46.2670 ha       999 HEM       0.152000
     71 HAB         46.9800    69.7570    46.8780 ha       999 HEM       0.123000
     72 HAC         54.6670    71.9150    47.6070 ha       999 HEM       0.126000
@<TRIPOS>BOND
     1     1     6 1   
     2     1    36 2   
     3     1    67 1   
     4     2     9 2   
     5     2    17 1   
     6     2    68 1   
     7     3    20 2   
     8     3    25 1   
     9     3    69 1   
    10     4    28 2   
    11     4    33 1   
    12     4    70 1   
    13     5     6 2   
    14     5     9 1   
    15     6     7 1   
    16     7     8 2   
    17     7    11 1   
    18     8     9 1   
    19     8    10 1   
    20    10    43 1   
    21    10    44 1   
    22    10    45 1   
    23    11    12 1   
    24    11    61 1   
    25    11    62 1   
    26    12    13 1   
    27    12    59 1   
    28    12    60 1   
    29    13    14 1   
    30    13    15 1   
    31    16    17 2   
    32    16    20 1   
    33    17    18 1   
    34    18    19 2   
    35    18    21 1   
    36    19    20 1   
    37    19    22 1   
    38    21    46 1   
    39    21    47 1   
    40    21    48 1   
    41    22    23 2   
    42    22    71 1   
    43    23    55 1   
    44    23    56 1   
    45    24    25 2   
    46    24    28 1   
    47    25    26 1   
    48    26    27 2   
    49    26    29 1   
    50    27    28 1   
    51    27    30 1   
    52    29    49 1   
    53    29    50 1   
    54    29    51 1   
    55    30    31 2   
    56    30    72 1   
    57    31    57 1   
    58    31    58 1   
    59    32    33 2   
    60    32    36 1   
    61    33    34 1   
    62    34    35 2   
    63    34    37 1   
    64    35    36 1   
    65    35    38 1   
    66    37    52 1   
    67    37    53 1   
    68    37    54 1   
    69    38    39 1   
    70    38    65 1   
    71    38    66 1   
    72    39    40 1   
    73    39    63 1   
    74    39    64 1   
    75    40    41 1   
    76    40    42 1   
@<TRIPOS>SUBSTRUCTURE
     1 HEM         1 TEMP              0 ****  ****    0 ROOT
